
     RDKit          3D

 17 18  0  0  0  0  0  0  0  0999 V2000
    5.5160   -5.3520   -1.1450 N   0  0  0  0  0  0  0  0  0  0  0  0
    5.1140   -5.0540   -2.0380 H   0  0  0  0  0  0  0  0  0  0  0  0
    5.7000   -4.2250   -0.1940 C   0  0  0  0  0  0  0  0  0  0  0  0
    4.5110   -5.9630   -0.2390 C   0  0  0  0  0  0  0  0  0  0  0  0
    3.6230   -6.3140   -0.7460 H   0  0  0  0  0  0  0  0  0  0  0  0
    4.9480   -6.6960    0.4260 H   0  0  0  0  0  0  0  0  0  0  0  0
    4.3350   -4.5710    0.4420 C   0  0  0  0  0  0  0  0  0  0  0  0
    4.3380   -4.6030    1.5230 H   0  0  0  0  0  0  0  0  0  0  0  0
    3.5190   -4.0010    0.0180 H   0  0  0  0  0  0  0  0  0  0  0  0
    6.9790   -4.1420    0.6800 C   0  0  0  0  0  0  0  0  0  0  0  0
    7.6110   -5.0170    0.6190 H   0  0  0  0  0  0  0  0  0  0  0  0
    6.7760   -3.8190    1.6920 H   0  0  0  0  0  0  0  0  0  0  0  0
    6.0220   -2.7910   -0.6880 C   0  0  0  0  0  0  0  0  0  0  0  0
    5.5050   -2.0280   -0.1210 H   0  0  0  0  0  0  0  0  0  0  0  0
    5.9460   -2.6690   -1.7590 H   0  0  0  0  0  0  0  0  0  0  0  0
    7.4100   -3.0220   -0.2030 N   0  0  0  0  0  0  0  0  0  0  0  0
    8.0300   -3.3480   -0.9500 H   0  0  0  0  0  0  0  0  0  0  0  0
  1  2  1  0
  1  3  1  0
  1  4  1  0
  3  7  1  0
  3 10  1  0
  3 13  1  0
  4  5  1  0
  4  6  1  0
  4  7  1  0
  7  8  1  0
  7  9  1  0
 10 11  1  0
 10 12  1  0
 10 16  1  0
 13 14  1  0
 13 15  1  0
 13 16  1  0
 16 17  1  0
M  END
$$$$

     RDKit          3D

 20 21  0  0  0  0  0  0  0  0999 V2000
    6.6720   -6.1980   -0.0760 C   0  0  0  0  0  0  0  0  0  0  0  0
    5.5680   -5.3390    0.5600 C   0  0  0  0  0  0  0  0  0  0  0  0
    4.6670   -5.4050   -0.0350 H   0  0  0  0  0  0  0  0  0  0  0  0
    5.4180   -5.6100    1.5950 H   0  0  0  0  0  0  0  0  0  0  0  0
    6.1520   -3.9220    0.4290 C   0  0  0  0  0  0  0  0  0  0  0  0
    6.1120   -3.3700    1.3690 H   0  0  0  0  0  0  0  0  0  0  0  0
    5.6230   -3.3770   -0.3550 H   0  0  0  0  0  0  0  0  0  0  0  0
    7.5970   -4.1580   -0.0150 C   0  0  0  0  0  0  0  0  0  0  0  0
    8.2260   -4.3980    0.8460 H   0  0  0  0  0  0  0  0  0  0  0  0
    7.9910   -3.2810   -0.5330 H   0  0  0  0  0  0  0  0  0  0  0  0
    7.4640   -5.2960   -0.9180 N   0  0  0  0  0  0  0  0  0  0  0  0
    8.3790   -5.7340   -0.9410 H   0  0  0  0  0  0  0  0  0  0  0  0
    7.4600   -7.1000    0.9110 C   0  0  0  0  0  0  0  0  0  0  0  0
    7.4020   -6.7880    1.9450 H   0  0  0  0  0  0  0  0  0  0  0  0
    8.4710   -7.3010    0.5790 H   0  0  0  0  0  0  0  0  0  0  0  0
    6.1990   -7.5220   -0.7250 C   0  0  0  0  0  0  0  0  0  0  0  0
    6.8410   -7.8460   -1.5340 H   0  0  0  0  0  0  0  0  0  0  0  0
    5.1470   -7.5430   -0.9740 H   0  0  0  0  0  0  0  0  0  0  0  0
    6.5150   -8.2160    0.5730 N   0  0  0  0  0  0  0  0  0  0  0  0
    5.7000   -8.0910    1.1620 H   0  0  0  0  0  0  0  0  0  0  0  0
  1  2  1  0
  1 11  1  0
  1 13  1  0
  1 16  1  0
  2  3  1  0
  2  4  1  0
  2  5  1  0
  5  6  1  0
  5  7  1  0
  5  8  1  0
  8  9  1  0
  8 10  1  0
  8 11  1  0
 11 12  1  0
 13 14  1  0
 13 15  1  0
 13 19  1  0
 16 17  1  0
 16 18  1  0
 16 19  1  0
 19 20  1  0
M  END
$$$$

     RDKit          3D

 23 24  0  0  0  0  0  0  0  0999 V2000
   10.4820   -5.1100   -1.0610 C   0  0  0  0  0  0  0  0  0  0  0  0
   10.9010   -5.0830   -2.0570 H   0  0  0  0  0  0  0  0  0  0  0  0
    9.7600   -4.3260   -0.8750 H   0  0  0  0  0  0  0  0  0  0  0  0
   11.5340   -5.2510    0.0750 C   0  0  0  0  0  0  0  0  0  0  0  0
    9.9820   -6.4470   -0.6520 N   0  0  0  0  0  0  0  0  0  0  0  0
   10.3840   -7.2030   -1.2110 H   0  0  0  0  0  0  0  0  0  0  0  0
   10.6090   -6.3360    0.6890 C   0  0  0  0  0  0  0  0  0  0  0  0
    9.9280   -5.9420    1.4310 H   0  0  0  0  0  0  0  0  0  0  0  0
   11.1230   -7.2320    1.0070 H   0  0  0  0  0  0  0  0  0  0  0  0
   12.9220   -5.8010   -0.3880 C   0  0  0  0  0  0  0  0  0  0  0  0
   12.8030   -6.2940   -1.3430 H   0  0  0  0  0  0  0  0  0  0  0  0
   13.3050   -6.4760    0.3650 H   0  0  0  0  0  0  0  0  0  0  0  0
   13.9520   -4.6570   -0.5450 C   0  0  0  0  0  0  0  0  0  0  0  0
   14.6890   -4.9350   -1.3010 H   0  0  0  0  0  0  0  0  0  0  0  0
   14.4690   -4.4580    0.3970 H   0  0  0  0  0  0  0  0  0  0  0  0
   13.1960   -3.4640   -0.9750 N   0  0  0  0  0  0  0  0  0  0  0  0
   12.6020   -3.7280   -1.7500 H   0  0  0  0  0  0  0  0  0  0  0  0
   12.3810   -2.8690    0.1160 C   0  0  0  0  0  0  0  0  0  0  0  0
   13.0220   -2.2850    0.7810 H   0  0  0  0  0  0  0  0  0  0  0  0
   11.6300   -2.2010   -0.3130 H   0  0  0  0  0  0  0  0  0  0  0  0
   11.7050   -3.9870    0.9490 C   0  0  0  0  0  0  0  0  0  0  0  0
   12.3500   -4.2360    1.7800 H   0  0  0  0  0  0  0  0  0  0  0  0
   10.7380   -3.6330    1.2820 H   0  0  0  0  0  0  0  0  0  0  0  0
  1  2  1  0
  1  3  1  0
  1  4  1  0
  1  5  1  0
  4  7  1  0
  4 10  1  0
  4 21  1  0
  5  6  1  0
  5  7  1  0
  7  8  1  0
  7  9  1  0
 10 11  1  0
 10 12  1  0
 10 13  1  0
 13 14  1  0
 13 15  1  0
 13 16  1  0
 16 17  1  0
 16 18  1  0
 18 19  1  0
 18 20  1  0
 18 21  1  0
 21 22  1  0
 21 23  1  0
M  END
$$$$

     RDKit          3D

 16 16  0  0  0  0  0  0  0  0999 V2000
    4.0270   -3.8580   -0.2250 C   0  0  0  0  0  0  0  0  0  0  0  0
    3.1360   -3.3680    0.1690 H   0  0  0  0  0  0  0  0  0  0  0  0
    3.9830   -3.8150   -1.3150 H   0  0  0  0  0  0  0  0  0  0  0  0
    4.0270   -5.3390    0.2060 C   0  0  0  0  0  0  0  0  0  0  0  0
    3.1390   -5.8300   -0.1950 H   0  0  0  0  0  0  0  0  0  0  0  0
    3.9750   -5.3810    1.2960 H   0  0  0  0  0  0  0  0  0  0  0  0
    5.2470   -6.0530   -0.2560 N   0  0  0  0  0  0  0  0  0  0  0  0
    5.2500   -6.0670   -1.2680 H   0  0  0  0  0  0  0  0  0  0  0  0
    6.4620   -5.3370    0.2150 C   0  0  0  0  0  0  0  0  0  0  0  0
    6.5070   -5.3800    1.3040 H   0  0  0  0  0  0  0  0  0  0  0  0
    7.3540   -5.8270   -0.1810 H   0  0  0  0  0  0  0  0  0  0  0  0
    6.4630   -3.8560   -0.2170 C   0  0  0  0  0  0  0  0  0  0  0  0
    6.5150   -3.8140   -1.3070 H   0  0  0  0  0  0  0  0  0  0  0  0
    7.3510   -3.3650    0.1840 H   0  0  0  0  0  0  0  0  0  0  0  0
    5.2430   -3.1420    0.2450 N   0  0  0  0  0  0  0  0  0  0  0  0
    5.2400   -3.1280    1.2570 H   0  0  0  0  0  0  0  0  0  0  0  0
  1  2  1  0
  1  3  1  0
  1  4  1  0
  1 15  1  0
  4  5  1  0
  4  6  1  0
  4  7  1  0
  7  8  1  0
  7  9  1  0
  9 10  1  0
  9 11  1  0
  9 12  1  0
 12 13  1  0
 12 14  1  0
 12 15  1  0
 15 16  1  0
M  END
$$$$

     RDKit          3D

 23 24  0  0  1  0  0  0  0  0999 V2000
   11.6220   -7.3130   -0.3700 C   0  0  0  0  0  0  0  0  0  0  0  0
   11.6490   -7.4810   -1.4490 H   0  0  0  0  0  0  0  0  0  0  0  0
   11.6180   -8.6520    0.3520 C   0  0  0  0  0  0  0  0  0  0  0  0
   11.6570   -8.4800    1.4300 H   0  0  0  0  0  0  0  0  0  0  0  0
   12.8450   -9.4670   -0.0780 C   0  0  0  0  0  0  0  0  0  0  0  0
   12.8680  -10.4190    0.4540 H   0  0  0  0  0  0  0  0  0  0  0  0
   12.8180   -9.6500   -1.1530 H   0  0  0  0  0  0  0  0  0  0  0  0
   14.0890   -8.6270    0.2830 C   0  0  0  0  0  0  0  0  0  0  0  0
   14.9860   -9.1320   -0.0780 H   0  0  0  0  0  0  0  0  0  0  0  0
   14.1580   -8.5450    1.3690 H   0  0  0  0  0  0  0  0  0  0  0  0
   14.0390   -7.2020   -0.3040 C   0  0  0  0  0  0  0  0  0  0  0  0
   14.1210   -7.2710   -1.3910 H   0  0  0  0  0  0  0  0  0  0  0  0
   14.8950   -6.6340    0.0670 H   0  0  0  0  0  0  0  0  0  0  0  0
   12.7820   -6.4970    0.0560 N   0  0  0  0  0  0  0  0  0  0  0  0
   12.7510   -5.5870   -0.3830 H   0  0  0  0  0  0  0  0  0  0  0  0
   10.2330   -6.7820   -0.0020 C   0  0  0  0  0  0  0  0  0  0  0  0
    9.8630   -6.1260   -0.7910 H   0  0  0  0  0  0  0  0  0  0  0  0
   10.3060   -6.2220    0.9320 H   0  0  0  0  0  0  0  0  0  0  0  0
   10.2190   -9.1260   -0.0200 C   0  0  0  0  0  0  0  0  0  0  0  0
    9.9060   -9.9820    0.5800 H   0  0  0  0  0  0  0  0  0  0  0  0
   10.2120   -9.4040   -1.0770 H   0  0  0  0  0  0  0  0  0  0  0  0
    9.3350   -7.9550    0.1850 N   0  0  0  0  0  0  0  0  0  0  0  0
    9.0310   -7.9450    1.1510 H   0  0  0  0  0  0  0  0  0  0  0  0
  1  2  1  0
  1  3  1  0
  1 14  1  0
  1 16  1  0
  3  4  1  0
  3  5  1  0
  3 19  1  0
  5  6  1  0
  5  7  1  0
  5  8  1  0
  8  9  1  0
  8 10  1  0
  8 11  1  0
 11 12  1  0
 11 13  1  0
 11 14  1  0
 14 15  1  0
 16 17  1  0
 16 18  1  0
 16 22  1  0
 19 20  1  0
 19 21  1  0
 19 22  1  0
 22 23  1  0
M  END
$$$$

     RDKit          3D

 23 24  0  0  1  0  0  0  0  0999 V2000
    3.8310   -2.9040   -0.4130 C   0  0  0  0  0  0  0  0  0  0  0  0
    3.8820   -2.5360   -1.4400 H   0  0  0  0  0  0  0  0  0  0  0  0
    3.8000   -4.4470   -0.4540 C   0  0  0  0  0  0  0  0  0  0  0  0
    3.8180   -4.7510   -1.5010 H   0  0  0  0  0  0  0  0  0  0  0  0
    4.9770   -5.1060    0.2890 C   0  0  0  0  0  0  0  0  0  0  0  0
    4.8590   -4.9520    1.3630 H   0  0  0  0  0  0  0  0  0  0  0  0
    5.0030   -6.1760    0.0820 H   0  0  0  0  0  0  0  0  0  0  0  0
    6.2900   -4.4410   -0.1570 C   0  0  0  0  0  0  0  0  0  0  0  0
    6.4880   -4.7190   -1.1930 H   0  0  0  0  0  0  0  0  0  0  0  0
    7.1070   -4.8250    0.4550 H   0  0  0  0  0  0  0  0  0  0  0  0
    6.2730   -2.9020   -0.0620 C   0  0  0  0  0  0  0  0  0  0  0  0
    6.5150   -2.4930   -1.0450 H   0  0  0  0  0  0  0  0  0  0  0  0
    7.0470   -2.5800    0.6380 H   0  0  0  0  0  0  0  0  0  0  0  0
    4.9640   -2.3690    0.3850 N   0  0  0  0  0  0  0  0  0  0  0  0
    4.9620   -1.3580    0.3750 H   0  0  0  0  0  0  0  0  0  0  0  0
    2.4630   -2.5370    0.1740 C   0  0  0  0  0  0  0  0  0  0  0  0
    2.0950   -1.5970   -0.2380 H   0  0  0  0  0  0  0  0  0  0  0  0
    2.5740   -2.4410    1.2560 H   0  0  0  0  0  0  0  0  0  0  0  0
    2.4330   -4.8160    0.1310 C   0  0  0  0  0  0  0  0  0  0  0  0
    2.5350   -4.9530    1.2110 H   0  0  0  0  0  0  0  0  0  0  0  0
    2.0400   -5.7320   -0.3150 H   0  0  0  0  0  0  0  0  0  0  0  0
    1.5560   -3.6630   -0.1310 N   0  0  0  0  0  0  0  0  0  0  0  0
    0.7220   -3.6630    0.4430 H   0  0  0  0  0  0  0  0  0  0  0  0
  1  2  1  0
  1  3  1  0
  1 14  1  0
  1 16  1  0
  3  4  1  0
  3  5  1  0
  3 19  1  0
  5  6  1  0
  5  7  1  0
  5  8  1  0
  8  9  1  0
  8 10  1  0
  8 11  1  0
 11 12  1  0
 11 13  1  0
 11 14  1  0
 14 15  1  0
 16 17  1  0
 16 18  1  0
 16 22  1  0
 19 20  1  0
 19 21  1  0
 19 22  1  0
 22 23  1  0
M  END
$$$$

     RDKit          3D

 17 18  0  0  0  0  0  0  0  0999 V2000
    3.7540   -7.1930   -0.1310 C   0  0  0  0  0  0  0  0  0  0  0  0
    4.3260   -7.7500    0.6000 H   0  0  0  0  0  0  0  0  0  0  0  0
    3.9260   -7.5310   -1.1450 H   0  0  0  0  0  0  0  0  0  0  0  0
    3.8840   -5.6300    0.0120 C   0  0  0  0  0  0  0  0  0  0  0  0
    2.3480   -7.1160    0.2100 N   0  0  0  0  0  0  0  0  0  0  0  0
    2.1790   -7.1900    1.2170 H   0  0  0  0  0  0  0  0  0  0  0  0
    2.3360   -5.7460   -0.2630 C   0  0  0  0  0  0  0  0  0  0  0  0
    2.0970   -5.6620   -1.3160 H   0  0  0  0  0  0  0  0  0  0  0  0
    1.7230   -5.1070    0.3580 H   0  0  0  0  0  0  0  0  0  0  0  0
    5.4450   -5.5010    0.1710 C   0  0  0  0  0  0  0  0  0  0  0  0
    6.0090   -6.0820   -0.5460 H   0  0  0  0  0  0  0  0  0  0  0  0
    5.7710   -5.6620    1.1910 H   0  0  0  0  0  0  0  0  0  0  0  0
    3.9990   -4.0800    0.2700 C   0  0  0  0  0  0  0  0  0  0  0  0
    3.9030   -3.8280    1.3180 H   0  0  0  0  0  0  0  0  0  0  0  0
    3.3680   -3.4730   -0.3660 H   0  0  0  0  0  0  0  0  0  0  0  0
    5.3740   -4.1000   -0.1880 N   0  0  0  0  0  0  0  0  0  0  0  0
    5.4610   -3.9430   -1.1960 H   0  0  0  0  0  0  0  0  0  0  0  0
  1  2  1  0
  1  3  1  0
  1  4  1  0
  1  5  1  0
  4  7  1  0
  4 10  1  0
  4 13  1  0
  5  6  1  0
  5  7  1  0
  7  8  1  0
  7  9  1  0
 10 11  1  0
 10 12  1  0
 10 16  1  0
 13 14  1  0
 13 15  1  0
 13 16  1  0
 16 17  1  0
M  END
$$$$

     RDKit          3D

 20 21  0  0  0  0  0  0  0  0999 V2000
    1.6300   -2.7870   -0.2280 C   0  0  0  0  0  0  0  0  0  0  0  0
    1.6020   -2.2150    0.6900 H   0  0  0  0  0  0  0  0  0  0  0  0
    0.8060   -2.5450   -0.8870 H   0  0  0  0  0  0  0  0  0  0  0  0
    1.5900   -4.3000    0.1220 C   0  0  0  0  0  0  0  0  0  0  0  0
    2.6960   -4.7850    0.9390 N   0  0  0  0  0  0  0  0  0  0  0  0
    2.6840   -4.2750    1.8260 H   0  0  0  0  0  0  0  0  0  0  0  0
    3.9690   -4.5110    0.2410 C   0  0  0  0  0  0  0  0  0  0  0  0
    4.8110   -4.7960    0.8720 H   0  0  0  0  0  0  0  0  0  0  0  0
    4.0140   -5.0770   -0.6910 H   0  0  0  0  0  0  0  0  0  0  0  0
    4.0380   -2.9990   -0.0700 C   0  0  0  0  0  0  0  0  0  0  0  0
    4.9790   -2.7960   -0.5840 H   0  0  0  0  0  0  0  0  0  0  0  0
    4.0390   -2.4380    0.8670 H   0  0  0  0  0  0  0  0  0  0  0  0
    2.9090   -2.5480   -0.9290 N   0  0  0  0  0  0  0  0  0  0  0  0
    2.8980   -3.1060   -1.7730 H   0  0  0  0  0  0  0  0  0  0  0  0
    0.2620   -4.9240    0.3860 C   0  0  0  0  0  0  0  0  0  0  0  0
    0.2350   -5.6940    1.1450 H   0  0  0  0  0  0  0  0  0  0  0  0
   -0.6100   -4.2940    0.2730 H   0  0  0  0  0  0  0  0  0  0  0  0
    1.0340   -5.2520   -0.8820 C   0  0  0  0  0  0  0  0  0  0  0  0
    0.6620   -4.8290   -1.8040 H   0  0  0  0  0  0  0  0  0  0  0  0
    1.5000   -6.2270   -0.9240 H   0  0  0  0  0  0  0  0  0  0  0  0
  1  2  1  0
  1  3  1  0
  1  4  1  0
  1 13  1  0
  4  5  1  0
  4 15  1  0
  4 18  1  0
  5  6  1  0
  5  7  1  0
  7  8  1  0
  7  9  1  0
  7 10  1  0
 10 11  1  0
 10 12  1  0
 10 13  1  0
 13 14  1  0
 15 16  1  0
 15 17  1  0
 15 18  1  0
 18 19  1  0
 18 20  1  0
M  END
$$$$

     RDKit          3D

 26 27  0  0  1  0  0  0  0  0999 V2000
    8.9890   -6.1730    0.2750 C   0  0  0  0  0  0  0  0  0  0  0  0
    8.0860   -5.7300   -0.1470 H   0  0  0  0  0  0  0  0  0  0  0  0
    8.9470   -6.0570    1.3590 H   0  0  0  0  0  0  0  0  0  0  0  0
    9.0140   -7.6780   -0.0510 C   0  0  0  0  0  0  0  0  0  0  0  0
    8.2500   -7.9050   -0.7980 H   0  0  0  0  0  0  0  0  0  0  0  0
    8.7620   -8.2290    0.8580 H   0  0  0  0  0  0  0  0  0  0  0  0
   10.3310   -8.1390   -0.5490 N   0  0  0  0  0  0  0  0  0  0  0  0
   10.4770   -7.7820   -1.4820 H   0  0  0  0  0  0  0  0  0  0  0  0
   11.4410   -7.6400    0.2890 C   0  0  0  0  0  0  0  0  0  0  0  0
   11.2590   -7.9610    1.3170 H   0  0  0  0  0  0  0  0  0  0  0  0
   11.5080   -6.0860    0.2990 C   0  0  0  0  0  0  0  0  0  0  0  0
   11.6300   -5.7780    1.3380 H   0  0  0  0  0  0  0  0  0  0  0  0
   10.2240   -5.4250   -0.2480 C   0  0  0  0  0  0  0  0  0  0  0  0
   10.1860   -4.3790    0.0600 H   0  0  0  0  0  0  0  0  0  0  0  0
   10.2220   -5.4680   -1.3390 H   0  0  0  0  0  0  0  0  0  0  0  0
   12.7560   -8.2910   -0.1600 C   0  0  0  0  0  0  0  0  0  0  0  0
   12.7590   -9.3360    0.1460 H   0  0  0  0  0  0  0  0  0  0  0  0
   12.8520   -8.2440   -1.2450 H   0  0  0  0  0  0  0  0  0  0  0  0
   13.9260   -7.5510    0.4910 C   0  0  0  0  0  0  0  0  0  0  0  0
   14.8680   -8.0610    0.2780 H   0  0  0  0  0  0  0  0  0  0  0  0
   13.7720   -7.5690    1.5720 H   0  0  0  0  0  0  0  0  0  0  0  0
   14.0000   -6.1370    0.0460 N   0  0  0  0  0  0  0  0  0  0  0  0
   14.7260   -6.0130   -0.6480 H   0  0  0  0  0  0  0  0  0  0  0  0
   12.7300   -5.5660   -0.4730 C   0  0  0  0  0  0  0  0  0  0  0  0
   12.7700   -4.4760   -0.4230 H   0  0  0  0  0  0  0  0  0  0  0  0
   12.6110   -5.8530   -1.5190 H   0  0  0  0  0  0  0  0  0  0  0  0
  1  2  1  0
  1  3  1  0
  1  4  1  0
  1 13  1  0
  4  5  1  0
  4  6  1  0
  4  7  1  0
  7  8  1  0
  7  9  1  0
  9 10  1  0
  9 11  1  0
  9 16  1  0
 11 12  1  0
 11 13  1  0
 11 24  1  0
 13 14  1  0
 13 15  1  0
 16 17  1  0
 16 18  1  0
 16 19  1  0
 19 20  1  0
 19 21  1  0
 19 22  1  0
 22 23  1  0
 22 24  1  0
 24 25  1  0
 24 26  1  0
M  END
$$$$

     RDKit          3D

 20 21  0  0  1  0  0  0  0  0999 V2000
    8.8210   -7.3830   -0.6840 C   0  0  0  0  0  0  0  0  0  0  0  0
    8.7170   -6.9400   -1.6660 H   0  0  0  0  0  0  0  0  0  0  0  0
    8.9540   -8.9280   -0.7170 C   0  0  0  0  0  0  0  0  0  0  0  0
    9.2620   -9.3370   -1.6700 H   0  0  0  0  0  0  0  0  0  0  0  0
    9.8330   -9.4630    0.4410 C   0  0  0  0  0  0  0  0  0  0  0  0
    9.9640  -10.5280    0.3120 H   0  0  0  0  0  0  0  0  0  0  0  0
    9.3310   -9.2400    1.3740 H   0  0  0  0  0  0  0  0  0  0  0  0
   11.1670   -8.7750    0.4520 N   0  0  0  0  0  0  0  0  0  0  0  0
   11.8900   -9.3900    0.0960 H   0  0  0  0  0  0  0  0  0  0  0  0
   11.2210   -7.4450   -0.2200 C   0  0  0  0  0  0  0  0  0  0  0  0
   12.0940   -6.8920    0.1340 H   0  0  0  0  0  0  0  0  0  0  0  0
   11.2910   -7.5560   -1.3050 H   0  0  0  0  0  0  0  0  0  0  0  0
    9.9300   -6.6930    0.1470 C   0  0  0  0  0  0  0  0  0  0  0  0
    9.7520   -6.7920    1.2090 H   0  0  0  0  0  0  0  0  0  0  0  0
   10.0100   -5.6620   -0.1660 H   0  0  0  0  0  0  0  0  0  0  0  0
    7.4790   -7.5990    0.0720 C   0  0  0  0  0  0  0  0  0  0  0  0
    6.6600   -7.0150   -0.3260 H   0  0  0  0  0  0  0  0  0  0  0  0
    7.5750   -7.5330    1.1470 H   0  0  0  0  0  0  0  0  0  0  0  0
    7.5050   -9.0070   -0.4160 N   0  0  0  0  0  0  0  0  0  0  0  0
    6.9370   -9.1380   -1.2570 H   0  0  0  0  0  0  0  0  0  0  0  0
  1  2  1  0
  1  3  1  0
  1 13  1  0
  1 16  1  0
  3  4  1  0
  3  5  1  0
  3 19  1  0
  5  6  1  0
  5  7  1  0
  5  8  1  0
  8  9  1  0
  8 10  1  0
 10 11  1  0
 10 12  1  0
 10 13  1  0
 13 14  1  0
 13 15  1  0
 16 17  1  0
 16 18  1  0
 16 19  1  0
 19 20  1  0
M  END
$$$$

     RDKit          3D

 23 24  0  0  1  0  0  0  0  0999 V2000
    8.0940   -7.4680    0.3910 C   0  0  0  0  0  0  0  0  0  0  0  0
    8.1890   -7.6370    1.4660 H   0  0  0  0  0  0  0  0  0  0  0  0
    8.0370   -8.8120   -0.3080 C   0  0  0  0  0  0  0  0  0  0  0  0
    8.0370   -8.6530   -1.3900 H   0  0  0  0  0  0  0  0  0  0  0  0
    9.2550   -9.6440    0.0770 C   0  0  0  0  0  0  0  0  0  0  0  0
    9.2740   -9.7880    1.1570 H   0  0  0  0  0  0  0  0  0  0  0  0
    9.2130  -10.6140   -0.4170 H   0  0  0  0  0  0  0  0  0  0  0  0
   10.5140   -8.8810   -0.3670 C   0  0  0  0  0  0  0  0  0  0  0  0
   10.5340   -8.8430   -1.4580 H   0  0  0  0  0  0  0  0  0  0  0  0
   11.3970   -9.4260   -0.0270 H   0  0  0  0  0  0  0  0  0  0  0  0
   10.5460   -7.4960    0.1760 N   0  0  0  0  0  0  0  0  0  0  0  0
   11.3740   -7.0050   -0.1370 H   0  0  0  0  0  0  0  0  0  0  0  0
    9.3210   -6.6990   -0.0980 C   0  0  0  0  0  0  0  0  0  0  0  0
    9.3770   -5.7420    0.4230 H   0  0  0  0  0  0  0  0  0  0  0  0
    9.2280   -6.5130   -1.1700 H   0  0  0  0  0  0  0  0  0  0  0  0
    6.6870   -6.9320    0.1020 C   0  0  0  0  0  0  0  0  0  0  0  0
    6.6750   -6.3710   -0.8330 H   0  0  0  0  0  0  0  0  0  0  0  0
    6.3300   -6.3160    0.9270 H   0  0  0  0  0  0  0  0  0  0  0  0
    6.7470   -9.3650    0.1070 N   0  0  0  0  0  0  0  0  0  0  0  0
    6.4640  -10.1760   -0.4260 H   0  0  0  0  0  0  0  0  0  0  0  0
    5.8380   -8.2090   -0.0480 C   0  0  0  0  0  0  0  0  0  0  0  0
    5.4010   -8.2140   -1.0490 H   0  0  0  0  0  0  0  0  0  0  0  0
    5.0380   -8.2460    0.6940 H   0  0  0  0  0  0  0  0  0  0  0  0
  1  2  1  0
  1  3  1  0
  1 13  1  0
  1 16  1  0
  3  4  1  0
  3  5  1  0
  3 19  1  0
  5  6  1  0
  5  7  1  0
  5  8  1  0
  8  9  1  0
  8 10  1  0
  8 11  1  0
 11 12  1  0
 11 13  1  0
 13 14  1  0
 13 15  1  0
 16 17  1  0
 16 18  1  0
 16 21  1  0
 19 20  1  0
 19 21  1  0
 21 22  1  0
 21 23  1  0
M  END
$$$$

     RDKit          3D

 29 30  0  0  1  0  0  0  0  0999 V2000
    9.6630   -5.1590    0.3710 C   0  0  0  0  0  0  0  0  0  0  0  0
    8.9310   -5.2360    1.1760 H   0  0  0  0  0  0  0  0  0  0  0  0
    9.2060   -4.6390   -0.4730 H   0  0  0  0  0  0  0  0  0  0  0  0
   10.0970   -6.5560   -0.0890 C   0  0  0  0  0  0  0  0  0  0  0  0
    9.2270   -7.1160   -0.4340 H   0  0  0  0  0  0  0  0  0  0  0  0
   10.5270   -7.0850    0.7620 H   0  0  0  0  0  0  0  0  0  0  0  0
   11.1410   -6.5010   -1.2170 C   0  0  0  0  0  0  0  0  0  0  0  0
   10.6590   -6.7310   -2.1690 H   0  0  0  0  0  0  0  0  0  0  0  0
   11.8910   -7.2710   -1.0270 H   0  0  0  0  0  0  0  0  0  0  0  0
   11.7960   -5.1740   -1.3260 N   0  0  0  0  0  0  0  0  0  0  0  0
   12.6140   -5.2180   -1.9150 H   0  0  0  0  0  0  0  0  0  0  0  0
   12.1520   -4.5090   -0.0490 C   0  0  0  0  0  0  0  0  0  0  0  0
   10.8920   -4.3600    0.8490 C   0  0  0  0  0  0  0  0  0  0  0  0
   11.1310   -4.6730    1.8650 H   0  0  0  0  0  0  0  0  0  0  0  0
   10.5970   -3.3120    0.9000 H   0  0  0  0  0  0  0  0  0  0  0  0
   13.2540   -5.3080    0.6870 C   0  0  0  0  0  0  0  0  0  0  0  0
   13.4450   -4.8370    1.6520 H   0  0  0  0  0  0  0  0  0  0  0  0
   12.9190   -6.3270    0.8740 H   0  0  0  0  0  0  0  0  0  0  0  0
   14.5780   -5.3380   -0.1020 C   0  0  0  0  0  0  0  0  0  0  0  0
   14.4380   -5.8790   -1.0380 H   0  0  0  0  0  0  0  0  0  0  0  0
   15.3380   -5.8540    0.4840 H   0  0  0  0  0  0  0  0  0  0  0  0
   15.0590   -3.9160   -0.4090 C   0  0  0  0  0  0  0  0  0  0  0  0
   15.9630   -3.9600   -1.0200 H   0  0  0  0  0  0  0  0  0  0  0  0
   15.3060   -3.4130    0.5280 H   0  0  0  0  0  0  0  0  0  0  0  0
   14.0160   -3.1440   -1.1180 N   0  0  0  0  0  0  0  0  0  0  0  0
   13.8210   -3.5690   -2.0140 H   0  0  0  0  0  0  0  0  0  0  0  0
   12.7420   -3.1040   -0.3430 C   0  0  0  0  0  0  0  0  0  0  0  0
   12.9160   -2.5900    0.6040 H   0  0  0  0  0  0  0  0  0  0  0  0
   12.0020   -2.5310   -0.9050 H   0  0  0  0  0  0  0  0  0  0  0  0
  1  2  1  0
  1  3  1  0
  1  4  1  0
  1 13  1  0
  4  5  1  0
  4  6  1  0
  4  7  1  0
  7  8  1  0
  7  9  1  0
  7 10  1  0
 10 11  1  0
 10 12  1  0
 12 13  1  0
 12 16  1  0
 12 27  1  0
 13 14  1  0
 13 15  1  0
 16 17  1  0
 16 18  1  0
 16 19  1  0
 19 20  1  0
 19 21  1  0
 19 22  1  0
 22 23  1  0
 22 24  1  0
 22 25  1  0
 25 26  1  0
 25 27  1  0
 27 28  1  0
 27 29  1  0
M  END
$$$$

     RDKit          3D

 29 30  0  0  1  0  0  0  0  0999 V2000
    2.1410   -6.4890    0.3040 C   0  0  0  0  0  0  0  0  0  0  0  0
    1.2810   -6.3560    0.9620 H   0  0  0  0  0  0  0  0  0  0  0  0
    2.0110   -5.8550   -0.5750 H   0  0  0  0  0  0  0  0  0  0  0  0
    2.2350   -7.9600   -0.1490 C   0  0  0  0  0  0  0  0  0  0  0  0
    1.6490   -8.0740   -1.0620 H   0  0  0  0  0  0  0  0  0  0  0  0
    1.8000   -8.6050    0.6150 H   0  0  0  0  0  0  0  0  0  0  0  0
    3.6710   -8.4380   -0.4220 C   0  0  0  0  0  0  0  0  0  0  0  0
    3.6450   -9.2200   -1.1830 H   0  0  0  0  0  0  0  0  0  0  0  0
    4.0930   -8.8610    0.4920 H   0  0  0  0  0  0  0  0  0  0  0  0
    4.5110   -7.3130   -0.8810 N   0  0  0  0  0  0  0  0  0  0  0  0
    5.4270   -7.6070   -1.1870 H   0  0  0  0  0  0  0  0  0  0  0  0
    4.6750   -6.2080    0.0990 C   0  0  0  0  0  0  0  0  0  0  0  0
    3.4350   -6.0780    1.0220 C   0  0  0  0  0  0  0  0  0  0  0  0
    3.5550   -6.7280    1.8890 H   0  0  0  0  0  0  0  0  0  0  0  0
    3.3450   -5.0540    1.3870 H   0  0  0  0  0  0  0  0  0  0  0  0
    5.9150   -6.4750    0.9770 C   0  0  0  0  0  0  0  0  0  0  0  0
    5.9630   -5.7150    1.7590 H   0  0  0  0  0  0  0  0  0  0  0  0
    5.8230   -7.4500    1.4560 H   0  0  0  0  0  0  0  0  0  0  0  0
    7.2290   -6.4280    0.1720 C   0  0  0  0  0  0  0  0  0  0  0  0
    7.2580   -7.2560   -0.5370 H   0  0  0  0  0  0  0  0  0  0  0  0
    8.0760   -6.5290    0.8510 H   0  0  0  0  0  0  0  0  0  0  0  0
    7.3590   -5.1090   -0.5980 C   0  0  0  0  0  0  0  0  0  0  0  0
    8.2600   -5.1350   -1.2140 H   0  0  0  0  0  0  0  0  0  0  0  0
    7.4560   -4.2860    0.1130 H   0  0  0  0  0  0  0  0  0  0  0  0
    6.1780   -4.8810   -1.4570 N   0  0  0  0  0  0  0  0  0  0  0  0
    6.0960   -5.6320   -2.1320 H   0  0  0  0  0  0  0  0  0  0  0  0
    4.9190   -4.8780   -0.6600 C   0  0  0  0  0  0  0  0  0  0  0  0
    4.9540   -4.0570    0.0570 H   0  0  0  0  0  0  0  0  0  0  0  0
    4.0740   -4.7060   -1.3290 H   0  0  0  0  0  0  0  0  0  0  0  0
  1  2  1  0
  1  3  1  0
  1  4  1  0
  1 13  1  0
  4  5  1  0
  4  6  1  0
  4  7  1  0
  7  8  1  0
  7  9  1  0
  7 10  1  0
 10 11  1  0
 10 12  1  0
 12 13  1  0
 12 16  1  0
 12 27  1  0
 13 14  1  0
 13 15  1  0
 16 17  1  0
 16 18  1  0
 16 19  1  0
 19 20  1  0
 19 21  1  0
 19 22  1  0
 22 23  1  0
 22 24  1  0
 22 25  1  0
 25 26  1  0
 25 27  1  0
 27 28  1  0
 27 29  1  0
M  END
$$$$

     RDKit          3D

 23 24  0  0  1  0  0  0  0  0999 V2000
    3.8140   -3.0050   -0.3630 C   0  0  0  0  0  0  0  0  0  0  0  0
    3.8430   -3.1590   -1.4430 H   0  0  0  0  0  0  0  0  0  0  0  0
    3.8130   -4.3580    0.3420 C   0  0  0  0  0  0  0  0  0  0  0  0
    3.8580   -4.2150    1.4240 H   0  0  0  0  0  0  0  0  0  0  0  0
    5.0360   -5.1640   -0.1150 C   0  0  0  0  0  0  0  0  0  0  0  0
    5.0010   -5.3240   -1.1940 H   0  0  0  0  0  0  0  0  0  0  0  0
    5.0560   -6.1300    0.3910 H   0  0  0  0  0  0  0  0  0  0  0  0
    6.2990   -4.3620    0.2480 C   0  0  0  0  0  0  0  0  0  0  0  0
    7.1830   -4.8960   -0.1080 H   0  0  0  0  0  0  0  0  0  0  0  0
    6.3680   -4.2850    1.3350 H   0  0  0  0  0  0  0  0  0  0  0  0
    6.2720   -2.9960   -0.3370 N   0  0  0  0  0  0  0  0  0  0  0  0
    6.3020   -3.0730   -1.3460 H   0  0  0  0  0  0  0  0  0  0  0  0
    5.0620   -2.2250    0.0500 C   0  0  0  0  0  0  0  0  0  0  0  0
    5.0540   -2.0670    1.1310 H   0  0  0  0  0  0  0  0  0  0  0  0
    5.0690   -1.2510   -0.4430 H   0  0  0  0  0  0  0  0  0  0  0  0
    2.4290   -2.4630   -0.0080 C   0  0  0  0  0  0  0  0  0  0  0  0
    2.0480   -1.8530   -0.8300 H   0  0  0  0  0  0  0  0  0  0  0  0
    2.4860   -1.8560    0.8980 H   0  0  0  0  0  0  0  0  0  0  0  0
    2.4090   -4.8130   -0.0290 C   0  0  0  0  0  0  0  0  0  0  0  0
    2.0930   -5.6820    0.5520 H   0  0  0  0  0  0  0  0  0  0  0  0
    2.3840   -5.0590   -1.0930 H   0  0  0  0  0  0  0  0  0  0  0  0
    1.5500   -3.6360    0.2280 N   0  0  0  0  0  0  0  0  0  0  0  0
    1.2950   -3.6350    1.2080 H   0  0  0  0  0  0  0  0  0  0  0  0
  1  2  1  0
  1  3  1  0
  1 13  1  0
  1 16  1  0
  3  4  1  0
  3  5  1  0
  3 19  1  0
  5  6  1  0
  5  7  1  0
  5  8  1  0
  8  9  1  0
  8 10  1  0
  8 11  1  0
 11 12  1  0
 11 13  1  0
 13 14  1  0
 13 15  1  0
 16 17  1  0
 16 18  1  0
 16 22  1  0
 19 20  1  0
 19 21  1  0
 19 22  1  0
 22 23  1  0
M  END
$$$$

     RDKit          3D

 23 24  0  0  1  0  0  0  0  0999 V2000
    3.8150   -2.8790   -0.3930 C   0  0  0  0  0  0  0  0  0  0  0  0
    3.6780   -2.4730   -1.3960 H   0  0  0  0  0  0  0  0  0  0  0  0
    3.8390   -4.4190   -0.5090 C   0  0  0  0  0  0  0  0  0  0  0  0
    3.9810   -4.6880   -1.5560 H   0  0  0  0  0  0  0  0  0  0  0  0
    4.9650   -5.0410    0.3390 C   0  0  0  0  0  0  0  0  0  0  0  0
    5.0250   -6.1130    0.1510 H   0  0  0  0  0  0  0  0  0  0  0  0
    4.7230   -4.8970    1.3930 H   0  0  0  0  0  0  0  0  0  0  0  0
    6.3420   -4.3980    0.0920 C   0  0  0  0  0  0  0  0  0  0  0  0
    6.8970   -4.9740   -0.6520 H   0  0  0  0  0  0  0  0  0  0  0  0
    6.9010   -4.4450    1.0290 H   0  0  0  0  0  0  0  0  0  0  0  0
    6.2660   -2.9810   -0.3480 N   0  0  0  0  0  0  0  0  0  0  0  0
    6.1780   -2.9530   -1.3560 H   0  0  0  0  0  0  0  0  0  0  0  0
    5.0920   -2.2760    0.2100 C   0  0  0  0  0  0  0  0  0  0  0  0
    5.0850   -2.3780    1.2980 H   0  0  0  0  0  0  0  0  0  0  0  0
    5.1390   -1.2140   -0.0380 H   0  0  0  0  0  0  0  0  0  0  0  0
    2.5440   -2.5970    0.4020 C   0  0  0  0  0  0  0  0  0  0  0  0
    2.1590   -1.5960    0.2000 H   0  0  0  0  0  0  0  0  0  0  0  0
    2.7530   -2.7060    1.4690 H   0  0  0  0  0  0  0  0  0  0  0  0
    2.4380   -4.8560   -0.0510 C   0  0  0  0  0  0  0  0  0  0  0  0
    2.5020   -5.2610    0.9610 H   0  0  0  0  0  0  0  0  0  0  0  0
    2.0200   -5.6160   -0.7150 H   0  0  0  0  0  0  0  0  0  0  0  0
    1.6050   -3.6410   -0.0330 N   0  0  0  0  0  0  0  0  0  0  0  0
    0.7860   -3.7250    0.5570 H   0  0  0  0  0  0  0  0  0  0  0  0
  1  2  1  0
  1  3  1  0
  1 13  1  0
  1 16  1  0
  3  4  1  0
  3  5  1  0
  3 19  1  0
  5  6  1  0
  5  7  1  0
  5  8  1  0
  8  9  1  0
  8 10  1  0
  8 11  1  0
 11 12  1  0
 11 13  1  0
 13 14  1  0
 13 15  1  0
 16 17  1  0
 16 18  1  0
 16 22  1  0
 19 20  1  0
 19 21  1  0
 19 22  1  0
 22 23  1  0
M  END
$$$$
